Data of selected test power systems/2. RBTS/ImpRBTSbus2.m
function mpc = ImpRBTSbus2
%	Improved_RBTS_Bus2 Power flow, reliability, and topology data for an improved RBTS - Bus 2 test system.
%   Please see CASEFORMAT for details on the case file format.
%
%   The original RBTS - Bus 2 test system is taken from pp. 813-820 of
%   "A reliability test system for educational purposes-basic distribution system data and results",
%   by R. N. Allan, R. Billinton, I. Sjarief, L. Goel and K. S. So
%	in IEEE Transactions on Power Systems, vol. 6, no. 2, pp. 813-820, May 1991.
%   MATPOWER
%   $Id: Improved_RBTS_Bus2.m,v 1.0 2016/09/29 12:00:00 ray Exp $

%% MATPOWER Case Format : Version 2
mpc.version = '2';

%%-----  Power Flow Data  -----%%
%% system MVA base
mpc.baseMVA = 20;

%% bus data
%	bus_i	type	Pd	Qd	Gs	Bs	area	Vm	Va	baseKV	zone	Vmax	Vmin
mpc.bus = [
	1	3	0	0	0	0	1	1	0	11	1	1.03	0.97;	% 11kV bus
	2	1	0	0	0	0	1	1	0	11	1	1.03	0.97;	% feeder 2.1-LP1,LP2
	3	1	0	0	0	0	1	1	0	11	1	1.03	0.97;	% feeder 2.1-LP3,LP4
	4	1	0	0	0	0	1	1	0	11	1	1.03	0.97;	% feeder 2.1-LP5,LP6
	5	1	0	0	0	0	1	1	0	11	1	1.03	0.97;	% feeder 2.1-LP7
	6	1	0	0	0	0	1	1	0	11	1	1.03	0.97;	% feeder 2.2-LP8
	7	1	0	0	0	0	1	1	0	11	1	1.03	0.97;	% feeder 2.2-LP9
	8	1	0	0	0	0	1	1	0	11	1	1.03	0.97;	% feeder 2.3-LP10
	9	1	0	0	0	0	1	1	0	11	1	1.03	0.97;	% feeder 2.3-LP11,LP12
	10	1	0	0	0	0	1	1	0	11	1	1.03	0.97;	% feeder 2.3-LP13,LP14
	11	1	0	0	0	0	1	1	0	11	1	1.03	0.97;	% feeder 2.3-LP15
	12	1	0	0	0	0	1	1	0	11	1	1.03	0.97;	% feeder 2.4-LP16,LP17
	13	1	0	0	0	0	1	1	0	11	1	1.03	0.97;	% feeder 2.4-LP18,LP19
	14	1	0	0	0	0	1	1	0	11	1	1.03	0.97;	% feeder 2.4-LP20
	15	1	0	0	0	0	1	1	0	11	1	1.03	0.97;	% feeder 2.4-LP12,LP22
	16	1	0.8668	0.17336	0	0	1	1	0	0.415	1	1.03	0.97;	% LP1 
	17	1	0.8668	0.17336	0	0	1	1	0	0.415	1	1.03	0.97;	% LP2
	18	1	0.8668	0.17336	0	0	1	1	0	0.415	1	1.03	0.97;	% LP3
	19	1	0.9167	0.18334	0	0	1	1	0	0.415	1	1.03	0.97;	% LP4
	20	1	0.9167	0.18334	0	0	1	1	0	0.415	1	1.03	0.97;	% LP5
	21	1	0.75	0.15	0	0	1	1	0	0.415	1	1.03	0.97;	% LP6
	22	1	0.75	0.15	0	0	1	1	0	0.415	1	1.03	0.97;	% LP7
	23	1	1.6279	0.32558	0	0	1	1	0	0.415	1	1.03	0.97;	% LP8 
	24	1	1.97721	0.37442	0	0	1	1	0	0.415	1	1.03	0.97;	% LP9
	25	1	0.8668	0.17336	0	0	1	1	0	0.415	1	1.03	0.97;	% LP10
	26	1	0.8668	0.17336	0	0	1	1	0	0.415	1	1.03	0.97;	% LP11
	27	1	0.7291	0.14582	0	0	1	1	0	0.415	1	1.03	0.97;	% LP12
	28	1	0.9167	0.18334	0	0	1	1	0	0.415	1	1.03	0.97;	% LP13
	29	1	0.9167	0.18334	0	0	1	1	0	0.415	1	1.03	0.97;	% LP14
	30	1	0.75	0.15	0	0	1	1	0	0.415	1	1.03	0.97;	% LP15
	31	1	0.75	0.15	0	0	1	1	0	0.415	1	1.03	0.97;	% LP16
	32	1	0.7291	0.14582	0	0	1	1	0	0.415	1	1.03	0.97;	% LP17 
	33	1	0.7291	0.14582	0	0	1	1	0	0.415	1	1.03	0.97;	% LP18
	34	1	0.7291	0.14582	0	0	1	1	0	0.415	1	1.03	0.97;	% LP19
	35	1	0.9167	0.18334	0	0	1	1	0	0.415	1	1.03	0.97;	% LP20
	36	1	0.9167	0.18334	0	0	1	1	0	0.415	1	1.03	0.97;	% LP21
	37	1	0.75	0.15	0	0	1	1	0	0.415	1	1.03	0.97;	% LP22
];

%% generator data
%	bus	Pg	Qg	Qmax	Qmin	Vg	mBase	status	Pmax	Pmin	Pc1	Pc2	Qc1min	Qc1max	Qc2min	Qc2max	ramp_agc	ramp_10	ramp_30	ramp_q	apf
mpc.gen = [
	1	30	0	17	-15	1.05	100	1	50	0	0	0	0	0	0	0	0	0	0	0	0;

];

%% branch data
%	fbus	tbus	r	x	b	rateA	rateB	rateC	ratio	angle	status	angmin	angmax
mpc.branch = [		
	1	2	0.008	0.007	0	6.80	8.16	6.80	0	0	1	-360	360;
	2	3	0.008	0.007	0	6.80	8.16	6.80	0	0	1	-360	360;
	3	4	0.008	0.007	0	6.80	8.16	6.80	0	0	1	-360	360;
	4	5	0.007	0.006	0	6.80	8.16	6.80	0	0	1	-360	360;
	2	16	0.010	0.059	0	1.25	2.50	2.00	0	0	1	-360	360;
	2	17	0.010	0.059	0	1.25	2.50	2.00	0	0	1	-360	360;
	3	18	0.010	0.059	0	1.25	2.50	2.00	0	0	1	-360	360;
	3	19	0.010	0.059	0	1.6	3.20	2.00	0	0	1	-360	360;
	4	20	0.010	0.059	0	1.6	3.20	2.00	0	0	1	-360	360;
	4	21	0.010	0.059	0	1.25	2.50	2.00	0	0	1	-360	360;
	5	22	0.010	0.059	0	1.25	2.50	2.00	0	0	1	-360	360;
	1	6	0.023	0.009	0	4.61	5.53	4.61	0	0	1	-360	360;
	6	7	0.019	0.007	0	4.61	5.53	4.61	0	0	1	-360	360;
	6	23	0.008	0.063	0	3.15	6.30	2.00	0	0	1	-360	360;
	7	24	0.008	0.063	0	3.15	6.30	2.00	0	0	1	-360	360;
	1	8	0.010	0.008	0	6.00	7.20	6.00	0	0	1	-360	360;
	8	9	0.011	0.008	0	6.00	7.20	6.00	0	0	1	-360	360;
	9	10	0.008	0.006	0	6.00	7.20	6.00	0	0	1	-360	360;
	10	11	0.010	0.008	0	6.00	7.20	6.00	0	0	1	-360	360;
	8	25	0.010	0.059	0	1.25	2.50	2.00	0	0	1	-360	360;
	9	26	0.010	0.059	0	1.25	2.50	2.00	0	0	1	-360	360;
	9	27	0.010	0.059	0	1.25	2.50	2.00	0	0	1	-360	360;
	10	28	0.010	0.059	0	1.6	3.20	2.00	0	0	1	-360	360;
	10	29	0.010	0.059	0	1.6	3.20	2.00	0	0	1	-360	360;
	11	30	0.010	0.059	0	1.25	2.50	2.00	0	0	1	-360	360;
	1	12	0.011	0.008	0	6.00	7.20	6.00	0	0	1	-360	360;
	12	13	0.010	0.008	0	6.00	7.20	6.00	0	0	1	-360	360;
	13	14	0.010	0.008	0	6.00	7.20	6.00	0	0	1	-360	360;
	14	15	0.008	0.006	0	6.00	7.20	6.00	0	0	1	-360	360;
	12	31	0.010	0.059	0	1.25	2.50	2.00	0	0	1	-360	360;
	12	32	0.010	0.059	0	1.25	2.50	2.00	0	0	1	-360	360;
	13	33	0.010	0.059	0	1.25	2.50	2.00	0	0	1	-360	360;
	13	34	0.010	0.059	0	1.25	2.50	2.00	0	0	1	-360	360;
	14	35	0.010	0.059	0	1.6	3.20	2.00	0	0	1	-360	360;
	15	36	0.010	0.059	0	1.6	3.20	2.00	0	0	1	-360	360;
	15	37	0.010	0.059	0	1.25	2.50	2.00	0	0	1	-360	360;
	5	7	0.060	0.011	0	4.61	2.40	2.00	0	0	0	-360	360;
	11	15	0.060	0.011	0	4.61	2.40	2.00	0	0	0	-360	360;
];  


%%-----  Reliability Data  -----%%
%% Component reliability data
% 1st Column: Component number
% 2nd Column: Component type (0: Bus/LoadPoint, 1: Breaker, 2: Overhead Line, 3: Switch, 4: Fuse, 5: Tranformer, 6: TieSwitch, 7: Linelateral)
% 3rd Column: Permanent failure rate (failures/year)
% 4th Column: Maximum failure rate for condition-depended failure rate cases (CDFR), expressed in times of permanent failure rate, e.g. x10 
% 5th Column: Probability of operational failure 	# Protection devices and switches, zero for the rest 
% 6th Column: Mean time to repair (hours)
% 7th Column: Mean time to switch (hours) 			# Only Switches, zero for the rest 
% 8th Column: Number of customers 		 			# Only for LoadPoints, zero for the rest
%	Num	CType	FR	Lmax	Prob	MTTR	MSwTime	NofCustomers   
mpc.comp_rel = [ 
	1	0	0.001	1	0	2	0	0;	% SlackBus
	2	0	0.001	1	0	2	0	0;	% Bus2
	3	0	0.001	1	0	2	0	0;	% Bus3
	4	0	0.001	1	0	2	0	0;	% Bus4
	5	0	0.001	1	0	2	0	0;	% Bus5
	6	0	0.001	1	0	2	0	0;	% Bus6
	7	0	0.001	1	0	2	0	0;	% Bus7
	8	0	0.001	1	0	2	0	0;	% Bus8
	9	0	0.001	1	0	2	0	0;	% Bus9
	10	0	0.001	1	0	2	0	0;	% Bus10
	11	0	0.001	1	0	2	0	0;	% Bus11
	12	0	0.001	1	0	2	0	0;	% Bus12
	13	0	0.001	1	0	2	0	0;	% Bus13
	14	0	0.001	1	0	2	0	0;	% Bus14
	15	0	0.001	1	0	2	0	0;	% Bus15
	16	0	0.001	1	0	2	0	210;	% LP1
	17	0	0.001	1	0	2	0	210; 	% LP2
	18	0	0.001	1	0	2	0	210;	% LP3
	19	0	0.001	1	0	2	0	1;	% LP4
	20	0	0.001	1	0	2	0	1;	% LP5
	21	0	0.001	1	0	2	0	10;	% LP6
	22	0	0.001	1	0	2	0	10;	% LP7
	23	0	0.001	1	0	2	0	1;	% LP8
	24	0	0.001	1	0	2	0	1;	% LP9
	25	0	0.001	1	0	2	0	210;	% LP10
	26	0	0.001	1	0	2	0	210;	% LP11
	27	0	0.001	1	0	2	0	200;	% LP12
	28	0	0.001	1	0	2	0	1;	% LP13
	29	0	0.001	1	0	2	0	1;	% LP14
	30	0	0.001	1	0	2	0	10;	% LP15
	31	0	0.001	1	0	2	0	10;	% LP16
	32	0	0.001	1	0	2	0	200;	% LP17
	33	0	0.001	1	0	2	0	200; 	% LP18
	34	0	0.001	1	0	2	0	200; 	% LP19
	35	0	0.001	1	0	2	0	1;	% LP20
	36	0	0.001	1	0	2	0	1;	% LP21 
	37	0	0.001	1	0	2	0	10;	% LP22 
	38	1	0.006	1	0	2	0	0;	% BR1 
	39	1	0.006	1	0	2	0	0;	% BR2 
	40	1	0.006	1	0	2	0	0;	% BR3 
	41	1	0.006	1	0	2	0	0;	% BR4 
	42	2	0.04875	10	0	5	0	0;	% ML1 
	43	2	0.04875	10	0	5	0	0;	% ML2 
	44	2	0.04875	10	0	5	0	0;	% ML3 
	45	2	0.039	10	0	5	0	0;	% ML4 
	46	2	0.04875	10	0	5	0	0;	% ML5 
	47	2	0.039	10	0	5	0	0;	% ML6 
	48	2	0.04875	10	0	5	0	0;	% ML7 
	49	2	0.052	10	0	5	0	0;	% ML8 
	50	2	0.039	10	0	5	0	0;	% ML9 
	51	2	0.04875	10	0	5	0	0;	% ML10 
	52	2	0.052	10	0	5	0	0;	% ML11 
	53	2	0.04875	10	0	5	0	0;	% ML12 
	54	2	0.04875	10	0	5	0	0;	% ML13 
	55	2	0.039	10	0	5	0	0;	% ML14 
	56	7	0.039	10	0	5	0	0;	% LAT1 
	57	7	0.052	10	0	5	0	0;	% LAT2 
	58	7	0.052	10	0	5	0	0;	% LAT3 
	59	7	0.039	10	0	5	0	0;	% LAT4 
	60	7	0.052	10	0	5	0	0;	% LAT5 
	61	7	0.052	10	0	5	0	0;	% LAT6 
	62	7	0.052	10	0	5	0	0;	% LAT7 
	63	7	0.052	10	0	5	0	0;	% LAT8 
	64	7	0.052	10	0	5	0	0;	% LAT9 
	65	7	0.039	10	0	5	0	0;	% LAT10 
	66	7	0.04875	10	0	5	0	0;	% LAT11 
	67	7	0.052	10	0	5	0	0;	% LAT12 
	68	7	0.04875	10	0	5	0	0;	% LAT13 
	69	7	0.052	10	0	5	0	0;	% LAT14 
	70	7	0.039	10	0	5	0	0;	% LAT15 
	71	7	0.04875	10	0	5	0	0;	% LAT16 
	72	7	0.039	10	0	5	0	0;	% LAT17 
	73	7	0.039	10	0	5	0	0;	% LAT18 
	74	7	0.052	10	0	5	0	0;	% LAT19 
	75	7	0.052	10	0	5	0	0;	% LAT20 
	76	7	0.04875	10	0	5	0	0;	% LAT21 
	77	7	0.052	10	0	5	0	0;	% LAT22 
	78	3	0.014	1	0.01	4	0	0;	% SW1 
	79	3	0.014	1	0.01	4	0	0;	% SW2 
	80	3	0.014	1	0.01	4	0	0;	% SW3 
	81	3	0.014	1	0.01	4	0	0;	% SW4 
	82	3	0.014	1	0.01	4	0	0;	% SW5 
	83	3	0.014	1	0.01	4	0	0;	% SW6 
	84	3	0.014	1	0.01	4	0	0;	% SW7 
	85	3	0.014	1	0.01	4	0	0;	% SW8 
	86	3	0.014	1	0.01	4	0	0;	% SW9 
	87	3	0.014	1	0.01	4	0	0;	% SW10 
	88	4	0.009	1	0	2	0	0;	% FS1 
	89	4	0.009	1	0	2	0	0;	% FS2 
	90	4	0.009	1	0	2	0	0;	% FS3 
	91	4	0.009	1	0	2	0	0;	% FS4 
	92	4	0.009	1	0	2	0	0;	% FS5 
	93	4	0.009	1	0	2	0	0;	% FS6 
	94	4	0.009	1	0	2	0	0;	% FS7 
	95	4	0.009	1	0	2	0	0;	% FS8 
	96	4	0.009	1	0	2	0	0;	% FS9 
	97	4	0.009	1	0	2	0	0;	% FS10 
	98	4	0.009	1	0	2	0	0;	% FS11 
	99	4	0.009	1	0	2	0	0;	% FS12 
	100	4	0.009	1	0	2	0	0;	% FS13 
	101	4	0.009	1	0	2	0	0;	% FS14 
	102	4	0.009	1	0	2	0	0;	% FS15 
	103	4	0.009	1	0	2	0	0;	% FS16 
	104	4	0.009	1	0	2	0	0;	% FS17 
	105	4	0.009	1	0	2	0	0;	% FS18 
	106	4	0.009	1	0	2	0	0;	% FS19 
	107	4	0.009	1	0	2	0	0;	% FS20 
	108	4	0.009	1	0	2	0	0;	% FS21 
	109	4	0.009	1	0	2	0	0;	% FS22 
	110	5	0.015	15	0	5	0	0;	% TR1 
	111	5	0.015	15	0	5	0	0;	% TR2 
	112	5	0.015	15	0	5	0	0;	% TR3 
	113	5	0.015	15	0	5	0	0;	% TR4 
	114	5	0.015	15	0	5	0	0;	% TR5 
	115	5	0.015	15	0	5	0	0;	% TR6 
	116	5	0.015	15	0	5	0	0;	% TR7 
	117	5	0.015	15	0	5	0	0;	% TR8 
	118	5	0.015	15	0	5	0	0;	% TR9 
	119	5	0.015	15	0	5	0	0;	% TR10 
	120	5	0.015	15	0	5	0	0;	% TR11 
	121	5	0.015	15	0	5	0	0;	% TR12 
	122	5	0.015	15	0	5	0	0;	% TR13 
	123	5	0.015	15	0	5	0	0;	% TR14 
	124	5	0.015	15	0	5	0	0;	% TR15 
	125	5	0.015	15	0	5	0	0;	% TR16 
	126	5	0.015	15	0	5	0	0;	% TR17 
	127	5	0.015	15	0	5	0	0;	% TR18 
	128	5	0.015	15	0	5	0	0;	% TR19 
	129	5	0.015	15	0	5	0	0;	% TR20 
	130	5	0.015	15	0	5	0	0;	% TR21 
	131	5	0.015	15	0	5	0	0;	% TR22 
	132	6	0	1	0	4	2	0;	% TS1
	133	6	0	1	0	4	2	0;	% TS1
	134	2	0	1	0	5	0	0;	% LNO1
	135	2	0	1	0	5	0	0;	% LNO2	
];

%%-----  Topology Data  -----%%
% NumberOfBranch	[Components in Branch]   
mpc.topology = [ 
	1	1	38	42	2	0;
	2	2	78	43	3	0;
	3	3	79	44	4	0;
	4	4	80	45	5	0;
	5	2	88	56	110	16;
	6	2	89	57	111	17;
	7	3	90	58	112	18;
	8	3	91	59	113	19;
	9	4	92	60	114	20;
	10	4	93	61	115	21;
	11	5	94	62	116	22;
	12	1	39	46	6	0;
	13	6	81	47	7	0;
	14	6	95	63	117	23;
	15	7	96	64	118	24;
	16	1	40	48	8	0;
	17	8	82	49	9	0;
	18	9	83	50	10	0;
	19	10	84	51	11	0;
	20	8	97	65	119	25;
	21	9	98	66	120	26;
	22	9	99	67	121	27;
	23	10	100	68	122	28;
	24	10	101	69	123	29;
	25	11	102	70	124	30;
	26	1	41	52	12	0;
	27	12	85	53	13	0;
	28	13	86	54	14	0;
	29	14	87	55	15	0;
	30	12	103	71	125	31;
	31	12	104	72	126	32;
	32	13	105	73	127	33;
	33	13	106	74	128	34;
	34	14	107	75	129	35;	
	35	15	108	76	130	36;
	36	15	109	77	131	37;
	37	5	132	134	7	0;
	38	11	133	135	15	0;
];